test/test_files/validation_tests/case30Q_res.m
function mpc = case30Q_res
%CASE30Q_RES

%% MATPOWER Case Format : Version 2
mpc.version = '2';

%%-----  Power Flow Data  -----%%
%% system MVA base
mpc.baseMVA = 100;

%% bus data
%	bus_i	type	Pd	Qd	Gs	Bs	area	Vm	Va	baseKV	zone	Vmax	Vmin
mpc.bus = [
	1	3	0	0	0	0	1	1	0	135	1	1.05	0.95;
	2	2	21.7	12.7	0	0	1	1	-0.415490717	135	1	1.1	0.95;
	3	1	2.4	1.2	0	0	1	0.983138289	-1.52207394	135	1	1.05	0.95;
	4	1	7.6	1.6	0	0	1	0.980092995	-1.79472765	135	1	1.05	0.95;
	5	1	0	0	0	0.19	1	0.982406197	-1.86382267	135	1	1.05	0.95;
	6	1	0	0	0	0	1	0.973184021	-2.2669567	135	1	1.05	0.95;
	7	1	22.8	10.9	0	0	1	0.967355448	-2.65183676	135	1	1.05	0.95;
	8	1	30	30	0	0	1	0.960623708	-2.72576943	135	1	1.05	0.95;
	9	1	0	0	0	0	1	0.980506117	-2.99693309	135	1	1.05	0.95;
	10	1	5.8	2	0	0	3	0.984404296	-3.37493594	135	1	1.05	0.95;
	11	1	0	0	0	0	1	0.980506117	-2.99693309	135	1	1.05	0.95;
	12	1	11.2	7.5	0	0	2	0.985468317	-1.53691158	135	1	1.05	0.95;
	13	2	0	0	0	0	2	1	1.47616326	135	1	1.1	0.95;
	14	1	6.2	1.6	0	0	2	0.976676834	-2.30803542	135	1	1.05	0.95;
	15	1	8.2	2.5	0	0	2	0.980229029	-2.31183539	135	1	1.05	0.95;
	16	1	3.5	1.8	0	0	2	0.977395655	-2.6444862	135	1	1.05	0.95;
	17	1	9	5.8	0	0	2	0.97686541	-3.39233921	135	1	1.05	0.95;
	18	1	3.2	0.9	0	0	2	0.968440329	-3.47838771	135	1	1.05	0.95;
	19	1	9.5	3.4	0	0	2	0.96528704	-3.95820468	135	1	1.05	0.95;
	20	1	2.2	0.7	0	0	2	0.969166351	-3.87102432	135	1	1.05	0.95;
	21	1	17.5	11.2	0	0	3	0.993383297	-3.48839332	135	1	1.05	0.95;
	22	2	0	0	0	0	3	1	-3.39272901	135	1	1.1	0.95;
	23	2	3.2	1.6	0	0	2	1	-1.58922792	135	1	1.1	0.95;
	24	1	8.7	6.7	0	0.04	3	0.988566296	-2.63146146	135	1	1.05	0.95;
	25	1	0	0	0	0	3	0.990214837	-1.68998888	135	1	1.05	0.95;
	26	1	3.5	2.3	0	0	3	0.97219415	-2.13934598	135	1	1.05	0.95;
	27	2	0	0	0	0	3	1	-0.828439316	135	1	1.1	0.95;
	28	1	0	0	0	0	1	0.9747149	-2.26592862	135	1	1.05	0.95;
	29	1	2.4	0.9	0	0	3	0.979596705	-2.12849817	135	1	1.05	0.95;
	30	1	10.6	1.9	0	0	3	0.967882879	-3.04152357	135	1	1.05	0.95;
];

%% generator data
%	bus	Pg	Qg	Qmax	Qmin	Vg	mBase	status	Pmax	Pmin	Pc1	Pc2	Qc1min	Qc1max	Qc2min	Qc2max	ramp_agc	ramp_10	ramp_30	ramp_q	apf
mpc.gen = [
	1	25.9738031	-0.998484238	150	-20	1	100	1	80	0	0	0	0	0	0	0	0	0	0	0	0;
	2	60.97	31.998982	60	-20	1	100	1	80	0	0	0	0	0	0	0	0	0	0	0	0;
	22	21.59	39.5699679	62.5	-15	1	100	1	50	0	0	0	0	0	0	0	0	0	0	0	0;
	27	26.91	10.5405101	48.7	-15	1	100	1	55	0	0	0	0	0	0	0	0	0	0	0	0;
	23	19.2	7.95095249	40	-10	1	100	1	30	0	0	0	0	0	0	0	0	0	0	0	0;
	13	37	11.3528772	44.7	-15	1	100	1	40	0	0	0	0	0	0	0	0	0	0	0	0;
];

%% branch data
%	fbus	tbus	r	x	b	rateA	rateB	rateC	ratio	angle	status	angmin	angmax	Pf	Qf	Pt	Qt
mpc.branch = [
	1	2	0.02	0.06	0.03	130	130	130	0	0	1	-360	360	10.8906	-5.0864	-10.8643	2.1652;
	1	3	0.05	0.19	0.02	130	130	130	0	0	1	-360	360	15.0832	4.0879	-14.9565	-5.5730;
	2	4	0.06	0.17	0.02	65	65	65	0	0	1	-360	360	16.0673	5.2062	-15.8893	-6.6624;
	3	4	0.01	0.04	0	130	130	130	0	0	1	-360	360	12.5565	4.3730	-12.5382	-4.2998;
	2	5	0.05	0.2	0.02	130	130	130	0	0	1	-360	360	13.7919	4.5059	-13.6816	-6.0299;
	2	6	0.06	0.18	0.02	65	65	65	0	0	1	-360	360	20.2751	7.4217	-19.9859	-8.5011;
	4	6	0.01	0.04	0	90	90	90	0	0	1	-360	360	22.4991	11.3848	-22.4329	-11.1200;
	5	7	0.05	0.12	0.01	70	70	70	0	0	1	-360	360	13.6816	6.2133	-13.5614	-6.8753;
	6	7	0.03	0.08	0.01	130	130	130	0	0	1	-360	360	9.2700	3.1671	-9.2386	-4.0247;
	6	8	0.01	0.04	0	32	32	32	0	0	1	-360	360	24.8223	24.4281	-24.6942	-23.9158;
	6	9	0	0.21	0	65	65	65	0	0	1	-360	360	5.7890	-3.3563	-5.7890	3.4556;
	6	10	0	0.56	0	32	32	32	0	0	1	-360	360	3.3080	-1.9179	-3.3080	2.0044;
	9	11	0	0.21	0	65	65	65	0	0	1	-360	360	0.0000	0.0000	0.0000	0.0000;
	9	10	0	0.11	0	65	65	65	0	0	1	-360	360	5.7890	-3.4556	-5.7890	3.5076;
	4	12	0	0.26	0	65	65	65	0	0	1	-360	360	-1.6716	-2.0225	1.6716	2.0411;
	12	13	0	0.14	0	65	65	65	0	0	1	-360	360	-37.0000	-9.2558	37.0000	11.3529;
	12	14	0.12	0.26	0	32	32	32	0	0	1	-360	360	5.3878	0.8791	-5.3510	-0.7993;
	12	15	0.07	0.13	0	32	32	32	0	0	1	-360	360	9.4770	-1.0634	-9.4115	1.1851;
	12	16	0.09	0.2	0	32	32	32	0	0	1	-360	360	9.2636	-0.1010	-9.1841	0.2777;
	14	15	0.22	0.2	0	16	16	16	0	0	1	-360	360	-0.8490	-0.8007	0.8522	0.8036;
	16	17	0.08	0.19	0	16	16	16	0	0	1	-360	360	5.6841	-2.0777	-5.6534	2.1506;
	15	18	0.11	0.22	0	16	16	16	0	0	1	-360	360	9.1646	0.7597	-9.0678	-0.5661;
	18	19	0.06	0.13	0	16	16	16	0	0	1	-360	360	5.8678	-0.3339	-5.8457	0.3818;
	19	20	0.03	0.07	0	32	32	32	0	0	1	-360	360	-3.6543	-3.7818	3.6632	3.8026;
	10	20	0.09	0.21	0	32	32	32	0	0	1	-360	360	5.9156	4.6248	-5.8632	-4.5026;
	10	17	0.03	0.08	0	32	32	32	0	0	1	-360	360	3.3700	8.0130	-3.3466	-7.9506;
	10	21	0.03	0.07	0	32	32	32	0	0	1	-360	360	-2.2338	-11.6670	2.2775	11.7689;
	10	22	0.07	0.15	0	32	32	32	0	0	1	-360	360	-3.7548	-8.4827	3.8170	8.6159;
	21	22	0.01	0.02	0	32	32	32	0	0	1	-360	360	-19.7775	-22.9689	19.8706	23.1551;
	15	23	0.1	0.2	0	16	16	16	0	0	1	-360	360	-8.8053	-5.2484	8.9147	5.4671;
	22	24	0.12	0.18	0	16	16	16	0	0	1	-360	360	-2.0976	7.7989	2.1758	-7.6815;
	23	24	0.13	0.27	0	16	16	16	0	0	1	-360	360	7.0853	0.8838	-7.0191	-0.7462;
	24	25	0.19	0.33	0	16	16	16	0	0	1	-360	360	-3.8568	1.7668	3.8918	-1.7060;
	25	26	0.25	0.38	0	16	16	16	0	0	1	-360	360	3.5464	2.3705	-3.5000	-2.3000;
	25	27	0.11	0.21	0	16	16	16	0	0	1	-360	360	-7.4382	-0.6645	7.5007	0.7840;
	28	27	0	0.4	0	65	65	65	0	0	1	-360	360	-6.1130	-6.0848	6.1130	6.3980;
	27	29	0.22	0.42	0	16	16	16	0	0	1	-360	360	6.1739	1.6840	-6.0838	-1.5120;
	27	30	0.32	0.6	0	16	16	16	0	0	1	-360	360	7.1224	1.6746	-6.9511	-1.3534;
	29	30	0.24	0.45	0	16	16	16	0	0	1	-360	360	3.6838	0.6120	-3.6489	-0.5466;
	8	28	0.06	0.2	0.02	32	32	32	0	0	1	-360	360	-5.3058	-6.0842	5.3414	4.3300;
	6	28	0.02	0.06	0.01	32	32	32	0	0	1	-360	360	-0.7704	-2.6998	0.7716	1.7547;
];

%%-----  OPF Data  -----%%
%% generator cost data
%	1	startup	shutdown	n	x1	y1	...	xn	yn
%	2	startup	shutdown	n	c(n-1)	...	c0
mpc.gencost = [
	2	0	0	3	0.02	2	0;
	2	0	0	3	0.0175	1.75	0;
	2	0	0	3	0.0625	1	0;
	2	0	0	3	0.00834	3.25	0;
	2	0	0	3	0.025	3	0;
	2	0	0	3	0.025	3	0;
	2	0	0	3	0.02	0	0;
	2	0	0	3	0.0175	0	0;
	2	0	0	3	0.0625	0	0;
	2	0	0	3	0.00834	0	0;
	2	0	0	3	0.025	0	0;
	2	0	0	3	0.025	0	0;
];
